#\#CIF_2.0
data_CELSLC

# Crystal data
_pd_phase_name                         'Super Cell'
_cell_length_a                         34.616638
_cell_length_b                         34.975361
_cell_length_c                         6.635700
_cell_angle_alpha                      90.0000
_cell_angle_beta                       90.0000
_cell_angle_gamma                      90.0000
_symmetry_space_group_name_H-M_alt     'P 1'
_symmetry_Int_Tables_number            1

# Symmetry operations
loop_
    _space_group_symop_id
    _space_group_symop_operation_xyz
    1    'x,y,z'

# Atomic types
loop_
    _atom_site_type_symbol
    _atom_type_oxidation_number
    B  0.0000
    N  0.0000

# Atomic sites
loop_
    _atom_site_label
    _atom_site_type_symbol
    _atom_site_occupancy
    _atom_site_fract_x
    _atom_site_fract_y
    _atom_site_fract_z
    _atom_site_thermal_displace_type
    _atom_site_U_iso_or_equiv
    B1  B  1.0000  0.000000  0.000000  0.750000  Uiso  0.012100
    B1  B  1.0000  0.125000  0.000000  0.750000  Uiso  0.012100
    B1  B  1.0000  0.250000  0.000000  0.750000  Uiso  0.012100
    B1  B  1.0000  0.375000  0.000000  0.750000  Uiso  0.012100
    B1  B  1.0000  0.500000  0.000000  0.750000  Uiso  0.012100
    B1  B  1.0000  0.625000  0.000000  0.750000  Uiso  0.012100
    B1  B  1.0000  0.750000  0.000000  0.750000  Uiso  0.012100
    B1  B  1.0000  0.875000  0.000000  0.750000  Uiso  0.012100
    B1  B  1.0000  0.000000  0.071430  0.750000  Uiso  0.012100
    B1  B  1.0000  0.125000  0.071430  0.750000  Uiso  0.012100
    B1  B  1.0000  0.250000  0.071430  0.750000  Uiso  0.012100
    B1  B  1.0000  0.375000  0.071430  0.750000  Uiso  0.012100
    B1  B  1.0000  0.500000  0.071430  0.750000  Uiso  0.012100
    B1  B  1.0000  0.625000  0.071430  0.750000  Uiso  0.012100
    B1  B  1.0000  0.750000  0.071430  0.750000  Uiso  0.012100
    B1  B  1.0000  0.875000  0.071430  0.750000  Uiso  0.012100
    B1  B  1.0000  0.000000  0.142860  0.750000  Uiso  0.012100
    B1  B  1.0000  0.125000  0.142860  0.750000  Uiso  0.012100
    B1  B  1.0000  0.250000  0.142860  0.750000  Uiso  0.012100
    B1  B  1.0000  0.375000  0.142860  0.750000  Uiso  0.012100
    B1  B  1.0000  0.500000  0.142860  0.750000  Uiso  0.012100
    B1  B  1.0000  0.625000  0.142860  0.750000  Uiso  0.012100
    B1  B  1.0000  0.750000  0.142860  0.750000  Uiso  0.012100
    B1  B  1.0000  0.875000  0.142860  0.750000  Uiso  0.012100
    B1  B  1.0000  0.000000  0.214290  0.750000  Uiso  0.012100
    B1  B  1.0000  0.125000  0.214290  0.750000  Uiso  0.012100
    B1  B  1.0000  0.250000  0.214290  0.750000  Uiso  0.012100
    B1  B  1.0000  0.375000  0.214290  0.750000  Uiso  0.012100
    B1  B  1.0000  0.500000  0.214290  0.750000  Uiso  0.012100
    B1  B  1.0000  0.625000  0.214290  0.750000  Uiso  0.012100
    B1  B  1.0000  0.750000  0.214290  0.750000  Uiso  0.012100
    B1  B  1.0000  0.875000  0.214290  0.750000  Uiso  0.012100
    B1  B  1.0000  0.000000  0.285710  0.750000  Uiso  0.012100
    B1  B  1.0000  0.125000  0.285710  0.750000  Uiso  0.012100
    B1  B  1.0000  0.250000  0.285710  0.750000  Uiso  0.012100
    B1  B  1.0000  0.375000  0.285710  0.750000  Uiso  0.012100
    B1  B  1.0000  0.500000  0.285710  0.750000  Uiso  0.012100
    B1  B  1.0000  0.625000  0.285710  0.750000  Uiso  0.012100
    B1  B  1.0000  0.750000  0.285710  0.750000  Uiso  0.012100
    B1  B  1.0000  0.875000  0.285710  0.750000  Uiso  0.012100
    B1  B  1.0000  0.000000  0.357140  0.750000  Uiso  0.012100
    B1  B  1.0000  0.125000  0.357140  0.750000  Uiso  0.012100
    B1  B  1.0000  0.250000  0.357140  0.750000  Uiso  0.012100
    B1  B  1.0000  0.375000  0.357140  0.750000  Uiso  0.012100
    B1  B  1.0000  0.500000  0.357140  0.750000  Uiso  0.012100
    B1  B  1.0000  0.625000  0.357140  0.750000  Uiso  0.012100
    B1  B  1.0000  0.750000  0.357140  0.750000  Uiso  0.012100
    B1  B  1.0000  0.875000  0.357140  0.750000  Uiso  0.012100
    B1  B  1.0000  0.000000  0.428570  0.750000  Uiso  0.012100
    B1  B  1.0000  0.125000  0.428570  0.750000  Uiso  0.012100
    B1  B  1.0000  0.250000  0.428570  0.750000  Uiso  0.012100
    B1  B  1.0000  0.375000  0.428570  0.750000  Uiso  0.012100
    B1  B  1.0000  0.500000  0.428570  0.750000  Uiso  0.012100
    B1  B  1.0000  0.625000  0.428570  0.750000  Uiso  0.012100
    B1  B  1.0000  0.750000  0.428570  0.750000  Uiso  0.012100
    B1  B  1.0000  0.875000  0.428570  0.750000  Uiso  0.012100
    B1  B  1.0000  0.000000  0.500000  0.750000  Uiso  0.012100
    B1  B  1.0000  0.125000  0.500000  0.750000  Uiso  0.012100
    B1  B  1.0000  0.250000  0.500000  0.750000  Uiso  0.012100
    B1  B  1.0000  0.375000  0.500000  0.750000  Uiso  0.012100
    B1  B  1.0000  0.500000  0.500000  0.750000  Uiso  0.012100
    B1  B  1.0000  0.625000  0.500000  0.750000  Uiso  0.012100
    B1  B  1.0000  0.750000  0.500000  0.750000  Uiso  0.012100
    B1  B  1.0000  0.875000  0.500000  0.750000  Uiso  0.012100
    B1  B  1.0000  0.000000  0.571430  0.750000  Uiso  0.012100
    B1  B  1.0000  0.125000  0.571430  0.750000  Uiso  0.012100
    B1  B  1.0000  0.250000  0.571430  0.750000  Uiso  0.012100
    B1  B  1.0000  0.375000  0.571430  0.750000  Uiso  0.012100
    B1  B  1.0000  0.500000  0.571430  0.750000  Uiso  0.012100
    B1  B  1.0000  0.625000  0.571430  0.750000  Uiso  0.012100
    B1  B  1.0000  0.750000  0.571430  0.750000  Uiso  0.012100
    B1  B  1.0000  0.875000  0.571430  0.750000  Uiso  0.012100
    B1  B  1.0000  0.000000  0.642860  0.750000  Uiso  0.012100
    B1  B  1.0000  0.125000  0.642860  0.750000  Uiso  0.012100
    B1  B  1.0000  0.250000  0.642860  0.750000  Uiso  0.012100
    B1  B  1.0000  0.375000  0.642860  0.750000  Uiso  0.012100
    B1  B  1.0000  0.500000  0.642860  0.750000  Uiso  0.012100
    B1  B  1.0000  0.625000  0.642860  0.750000  Uiso  0.012100
    B1  B  1.0000  0.750000  0.642860  0.750000  Uiso  0.012100
    B1  B  1.0000  0.875000  0.642860  0.750000  Uiso  0.012100
    B1  B  1.0000  0.000000  0.714290  0.750000  Uiso  0.012100
    B1  B  1.0000  0.125000  0.714290  0.750000  Uiso  0.012100
    B1  B  1.0000  0.250000  0.714290  0.750000  Uiso  0.012100
    B1  B  1.0000  0.375000  0.714290  0.750000  Uiso  0.012100
    B1  B  1.0000  0.500000  0.714290  0.750000  Uiso  0.012100
    B1  B  1.0000  0.625000  0.714290  0.750000  Uiso  0.012100
    B1  B  1.0000  0.750000  0.714290  0.750000  Uiso  0.012100
    B1  B  1.0000  0.875000  0.714290  0.750000  Uiso  0.012100
    B1  B  1.0000  0.000000  0.785710  0.750000  Uiso  0.012100
    B1  B  1.0000  0.125000  0.785710  0.750000  Uiso  0.012100
    B1  B  1.0000  0.250000  0.785710  0.750000  Uiso  0.012100
    B1  B  1.0000  0.375000  0.785710  0.750000  Uiso  0.012100
    B1  B  1.0000  0.500000  0.785710  0.750000  Uiso  0.012100
    B1  B  1.0000  0.625000  0.785710  0.750000  Uiso  0.012100
    B1  B  1.0000  0.750000  0.785710  0.750000  Uiso  0.012100
    B1  B  1.0000  0.875000  0.785710  0.750000  Uiso  0.012100
    B1  B  1.0000  0.000000  0.857140  0.750000  Uiso  0.012100
    B1  B  1.0000  0.125000  0.857140  0.750000  Uiso  0.012100
    B1  B  1.0000  0.250000  0.857140  0.750000  Uiso  0.012100
    B1  B  1.0000  0.375000  0.857140  0.750000  Uiso  0.012100
    B1  B  1.0000  0.500000  0.857140  0.750000  Uiso  0.012100
    B1  B  1.0000  0.625000  0.857140  0.750000  Uiso  0.012100
    B1  B  1.0000  0.750000  0.857140  0.750000  Uiso  0.012100
    B1  B  1.0000  0.875000  0.857140  0.750000  Uiso  0.012100
    B1  B  1.0000  0.000000  0.928570  0.750000  Uiso  0.012100
    B1  B  1.0000  0.125000  0.928570  0.750000  Uiso  0.012100
    B1  B  1.0000  0.250000  0.928570  0.750000  Uiso  0.012100
    B1  B  1.0000  0.375000  0.928570  0.750000  Uiso  0.012100
    B1  B  1.0000  0.500000  0.928570  0.750000  Uiso  0.012100
    B1  B  1.0000  0.625000  0.928570  0.750000  Uiso  0.012100
    B1  B  1.0000  0.750000  0.928570  0.750000  Uiso  0.012100
    B1  B  1.0000  0.875000  0.928570  0.750000  Uiso  0.012100
    B1  B  1.0000  0.062500  0.035710  0.750000  Uiso  0.012100
    B1  B  1.0000  0.187500  0.035710  0.750000  Uiso  0.012100
    B1  B  1.0000  0.312500  0.035710  0.750000  Uiso  0.012100
    B1  B  1.0000  0.437500  0.035710  0.750000  Uiso  0.012100
    B1  B  1.0000  0.562500  0.035710  0.750000  Uiso  0.012100
    B1  B  1.0000  0.687500  0.035710  0.750000  Uiso  0.012100
    B1  B  1.0000  0.812500  0.035710  0.750000  Uiso  0.012100
    B1  B  1.0000  0.937500  0.035710  0.750000  Uiso  0.012100
    B1  B  1.0000  0.062500  0.107140  0.750000  Uiso  0.012100
    B1  B  1.0000  0.187500  0.107140  0.750000  Uiso  0.012100
    B1  B  1.0000  0.312500  0.107140  0.750000  Uiso  0.012100
    B1  B  1.0000  0.437500  0.107140  0.750000  Uiso  0.012100
    B1  B  1.0000  0.562500  0.107140  0.750000  Uiso  0.012100
    B1  B  1.0000  0.687500  0.107140  0.750000  Uiso  0.012100
    B1  B  1.0000  0.812500  0.107140  0.750000  Uiso  0.012100
    B1  B  1.0000  0.937500  0.107140  0.750000  Uiso  0.012100
    B1  B  1.0000  0.062500  0.178570  0.750000  Uiso  0.012100
    B1  B  1.0000  0.187500  0.178570  0.750000  Uiso  0.012100
    B1  B  1.0000  0.312500  0.178570  0.750000  Uiso  0.012100
    B1  B  1.0000  0.437500  0.178570  0.750000  Uiso  0.012100
    B1  B  1.0000  0.562500  0.178570  0.750000  Uiso  0.012100
    B1  B  1.0000  0.687500  0.178570  0.750000  Uiso  0.012100
    B1  B  1.0000  0.812500  0.178570  0.750000  Uiso  0.012100
    B1  B  1.0000  0.937500  0.178570  0.750000  Uiso  0.012100
    B1  B  1.0000  0.062500  0.250000  0.750000  Uiso  0.012100
    B1  B  1.0000  0.187500  0.250000  0.750000  Uiso  0.012100
    B1  B  1.0000  0.312500  0.250000  0.750000  Uiso  0.012100
    B1  B  1.0000  0.437500  0.250000  0.750000  Uiso  0.012100
    B1  B  1.0000  0.562500  0.250000  0.750000  Uiso  0.012100
    B1  B  1.0000  0.687500  0.250000  0.750000  Uiso  0.012100
    B1  B  1.0000  0.812500  0.250000  0.750000  Uiso  0.012100
    B1  B  1.0000  0.937500  0.250000  0.750000  Uiso  0.012100
    B1  B  1.0000  0.062500  0.321430  0.750000  Uiso  0.012100
    B1  B  1.0000  0.187500  0.321430  0.750000  Uiso  0.012100
    B1  B  1.0000  0.312500  0.321430  0.750000  Uiso  0.012100
    B1  B  1.0000  0.437500  0.321430  0.750000  Uiso  0.012100
    B1  B  1.0000  0.562500  0.321430  0.750000  Uiso  0.012100
    B1  B  1.0000  0.687500  0.321430  0.750000  Uiso  0.012100
    B1  B  1.0000  0.812500  0.321430  0.750000  Uiso  0.012100
    B1  B  1.0000  0.937500  0.321430  0.750000  Uiso  0.012100
    B1  B  1.0000  0.062500  0.392860  0.750000  Uiso  0.012100
    B1  B  1.0000  0.187500  0.392860  0.750000  Uiso  0.012100
    B1  B  1.0000  0.312500  0.392860  0.750000  Uiso  0.012100
    B1  B  1.0000  0.437500  0.392860  0.750000  Uiso  0.012100
    B1  B  1.0000  0.562500  0.392860  0.750000  Uiso  0.012100
    B1  B  1.0000  0.687500  0.392860  0.750000  Uiso  0.012100
    B1  B  1.0000  0.812500  0.392860  0.750000  Uiso  0.012100
    B1  B  1.0000  0.937500  0.392860  0.750000  Uiso  0.012100
    B1  B  1.0000  0.062500  0.464290  0.750000  Uiso  0.012100
    B1  B  1.0000  0.187500  0.464290  0.750000  Uiso  0.012100
    B1  B  1.0000  0.312500  0.464290  0.750000  Uiso  0.012100
    B1  B  1.0000  0.437500  0.464290  0.750000  Uiso  0.012100
    B1  B  1.0000  0.562500  0.464290  0.750000  Uiso  0.012100
    B1  B  1.0000  0.687500  0.464290  0.750000  Uiso  0.012100
    B1  B  1.0000  0.812500  0.464290  0.750000  Uiso  0.012100
    B1  B  1.0000  0.937500  0.464290  0.750000  Uiso  0.012100
    B1  B  1.0000  0.062500  0.535710  0.750000  Uiso  0.012100
    B1  B  1.0000  0.187500  0.535710  0.750000  Uiso  0.012100
    B1  B  1.0000  0.312500  0.535710  0.750000  Uiso  0.012100
    B1  B  1.0000  0.437500  0.535710  0.750000  Uiso  0.012100
    B1  B  1.0000  0.562500  0.535710  0.750000  Uiso  0.012100
    B1  B  1.0000  0.687500  0.535710  0.750000  Uiso  0.012100
    B1  B  1.0000  0.812500  0.535710  0.750000  Uiso  0.012100
    B1  B  1.0000  0.937500  0.535710  0.750000  Uiso  0.012100
    B1  B  1.0000  0.062500  0.607140  0.750000  Uiso  0.012100
    B1  B  1.0000  0.187500  0.607140  0.750000  Uiso  0.012100
    B1  B  1.0000  0.312500  0.607140  0.750000  Uiso  0.012100
    B1  B  1.0000  0.437500  0.607140  0.750000  Uiso  0.012100
    B1  B  1.0000  0.562500  0.607140  0.750000  Uiso  0.012100
    B1  B  1.0000  0.687500  0.607140  0.750000  Uiso  0.012100
    B1  B  1.0000  0.812500  0.607140  0.750000  Uiso  0.012100
    B1  B  1.0000  0.937500  0.607140  0.750000  Uiso  0.012100
    B1  B  1.0000  0.062500  0.678570  0.750000  Uiso  0.012100
    B1  B  1.0000  0.187500  0.678570  0.750000  Uiso  0.012100
    B1  B  1.0000  0.312500  0.678570  0.750000  Uiso  0.012100
    B1  B  1.0000  0.437500  0.678570  0.750000  Uiso  0.012100
    B1  B  1.0000  0.562500  0.678570  0.750000  Uiso  0.012100
    B1  B  1.0000  0.687500  0.678570  0.750000  Uiso  0.012100
    B1  B  1.0000  0.812500  0.678570  0.750000  Uiso  0.012100
    B1  B  1.0000  0.937500  0.678570  0.750000  Uiso  0.012100
    B1  B  1.0000  0.062500  0.750000  0.750000  Uiso  0.012100
    B1  B  1.0000  0.187500  0.750000  0.750000  Uiso  0.012100
    B1  B  1.0000  0.312500  0.750000  0.750000  Uiso  0.012100
    B1  B  1.0000  0.437500  0.750000  0.750000  Uiso  0.012100
    B1  B  1.0000  0.562500  0.750000  0.750000  Uiso  0.012100
    B1  B  1.0000  0.687500  0.750000  0.750000  Uiso  0.012100
    B1  B  1.0000  0.812500  0.750000  0.750000  Uiso  0.012100
    B1  B  1.0000  0.937500  0.750000  0.750000  Uiso  0.012100
    B1  B  1.0000  0.062500  0.821430  0.750000  Uiso  0.012100
    B1  B  1.0000  0.187500  0.821430  0.750000  Uiso  0.012100
    B1  B  1.0000  0.312500  0.821430  0.750000  Uiso  0.012100
    B1  B  1.0000  0.437500  0.821430  0.750000  Uiso  0.012100
    B1  B  1.0000  0.562500  0.821430  0.750000  Uiso  0.012100
    B1  B  1.0000  0.687500  0.821430  0.750000  Uiso  0.012100
    B1  B  1.0000  0.812500  0.821430  0.750000  Uiso  0.012100
    B1  B  1.0000  0.937500  0.821430  0.750000  Uiso  0.012100
    B1  B  1.0000  0.062500  0.892860  0.750000  Uiso  0.012100
    B1  B  1.0000  0.187500  0.892860  0.750000  Uiso  0.012100
    B1  B  1.0000  0.312500  0.892860  0.750000  Uiso  0.012100
    B1  B  1.0000  0.437500  0.892860  0.750000  Uiso  0.012100
    B1  B  1.0000  0.562500  0.892860  0.750000  Uiso  0.012100
    B1  B  1.0000  0.687500  0.892860  0.750000  Uiso  0.012100
    B1  B  1.0000  0.812500  0.892860  0.750000  Uiso  0.012100
    B1  B  1.0000  0.937500  0.892860  0.750000  Uiso  0.012100
    B1  B  1.0000  0.062500  0.964290  0.750000  Uiso  0.012100
    B1  B  1.0000  0.187500  0.964290  0.750000  Uiso  0.012100
    B1  B  1.0000  0.312500  0.964290  0.750000  Uiso  0.012100
    B1  B  1.0000  0.437500  0.964290  0.750000  Uiso  0.012100
    B1  B  1.0000  0.562500  0.964290  0.750000  Uiso  0.012100
    B1  B  1.0000  0.687500  0.964290  0.750000  Uiso  0.012100
    B1  B  1.0000  0.812500  0.964290  0.750000  Uiso  0.012100
    B1  B  1.0000  0.937500  0.964290  0.750000  Uiso  0.012100
    B1  B  1.0000  0.041660  0.000000  0.250000  Uiso  0.012100
    B1  B  1.0000  0.166660  0.000000  0.250000  Uiso  0.012100
    B1  B  1.0000  0.291660  0.000000  0.250000  Uiso  0.012100
    B1  B  1.0000  0.416660  0.000000  0.250000  Uiso  0.012100
    B1  B  1.0000  0.541660  0.000000  0.250000  Uiso  0.012100
    B1  B  1.0000  0.666660  0.000000  0.250000  Uiso  0.012100
    B1  B  1.0000  0.791660  0.000000  0.250000  Uiso  0.012100
    B1  B  1.0000  0.916660  0.000000  0.250000  Uiso  0.012100
    B1  B  1.0000  0.041660  0.071430  0.250000  Uiso  0.012100
    B1  B  1.0000  0.166660  0.071430  0.250000  Uiso  0.012100
    B1  B  1.0000  0.291660  0.071430  0.250000  Uiso  0.012100
    B1  B  1.0000  0.416660  0.071430  0.250000  Uiso  0.012100
    B1  B  1.0000  0.541660  0.071430  0.250000  Uiso  0.012100
    B1  B  1.0000  0.666660  0.071430  0.250000  Uiso  0.012100
    B1  B  1.0000  0.791660  0.071430  0.250000  Uiso  0.012100
    B1  B  1.0000  0.916660  0.071430  0.250000  Uiso  0.012100
    B1  B  1.0000  0.041660  0.142860  0.250000  Uiso  0.012100
    B1  B  1.0000  0.166660  0.142860  0.250000  Uiso  0.012100
    B1  B  1.0000  0.291660  0.142860  0.250000  Uiso  0.012100
    B1  B  1.0000  0.416660  0.142860  0.250000  Uiso  0.012100
    B1  B  1.0000  0.541660  0.142860  0.250000  Uiso  0.012100
    B1  B  1.0000  0.666660  0.142860  0.250000  Uiso  0.012100
    B1  B  1.0000  0.791660  0.142860  0.250000  Uiso  0.012100
    B1  B  1.0000  0.916660  0.142860  0.250000  Uiso  0.012100
    B1  B  1.0000  0.041660  0.214290  0.250000  Uiso  0.012100
    B1  B  1.0000  0.166660  0.214290  0.250000  Uiso  0.012100
    B1  B  1.0000  0.291660  0.214290  0.250000  Uiso  0.012100
    B1  B  1.0000  0.416660  0.214290  0.250000  Uiso  0.012100
    B1  B  1.0000  0.541660  0.214290  0.250000  Uiso  0.012100
    B1  B  1.0000  0.666660  0.214290  0.250000  Uiso  0.012100
    B1  B  1.0000  0.791660  0.214290  0.250000  Uiso  0.012100
    B1  B  1.0000  0.916660  0.214290  0.250000  Uiso  0.012100
    B1  B  1.0000  0.041660  0.285710  0.250000  Uiso  0.012100
    B1  B  1.0000  0.166660  0.285710  0.250000  Uiso  0.012100
    B1  B  1.0000  0.291660  0.285710  0.250000  Uiso  0.012100
    B1  B  1.0000  0.416660  0.285710  0.250000  Uiso  0.012100
    B1  B  1.0000  0.541660  0.285710  0.250000  Uiso  0.012100
    B1  B  1.0000  0.666660  0.285710  0.250000  Uiso  0.012100
    B1  B  1.0000  0.791660  0.285710  0.250000  Uiso  0.012100
    B1  B  1.0000  0.916660  0.285710  0.250000  Uiso  0.012100
    B1  B  1.0000  0.041660  0.357140  0.250000  Uiso  0.012100
    B1  B  1.0000  0.166660  0.357140  0.250000  Uiso  0.012100
    B1  B  1.0000  0.291660  0.357140  0.250000  Uiso  0.012100
    B1  B  1.0000  0.416660  0.357140  0.250000  Uiso  0.012100
    B1  B  1.0000  0.541660  0.357140  0.250000  Uiso  0.012100
    B1  B  1.0000  0.666660  0.357140  0.250000  Uiso  0.012100
    B1  B  1.0000  0.791660  0.357140  0.250000  Uiso  0.012100
    B1  B  1.0000  0.916660  0.357140  0.250000  Uiso  0.012100
    B1  B  1.0000  0.041660  0.428570  0.250000  Uiso  0.012100
    B1  B  1.0000  0.166660  0.428570  0.250000  Uiso  0.012100
    B1  B  1.0000  0.291660  0.428570  0.250000  Uiso  0.012100
    B1  B  1.0000  0.416660  0.428570  0.250000  Uiso  0.012100
    B1  B  1.0000  0.541660  0.428570  0.250000  Uiso  0.012100
    B1  B  1.0000  0.666660  0.428570  0.250000  Uiso  0.012100
    B1  B  1.0000  0.791660  0.428570  0.250000  Uiso  0.012100
    B1  B  1.0000  0.916660  0.428570  0.250000  Uiso  0.012100
    B1  B  1.0000  0.041660  0.500000  0.250000  Uiso  0.012100
    B1  B  1.0000  0.166660  0.500000  0.250000  Uiso  0.012100
    B1  B  1.0000  0.291660  0.500000  0.250000  Uiso  0.012100
    B1  B  1.0000  0.416660  0.500000  0.250000  Uiso  0.012100
    B1  B  1.0000  0.541660  0.500000  0.250000  Uiso  0.012100
    B1  B  1.0000  0.666660  0.500000  0.250000  Uiso  0.012100
    B1  B  1.0000  0.791660  0.500000  0.250000  Uiso  0.012100
    B1  B  1.0000  0.916660  0.500000  0.250000  Uiso  0.012100
    B1  B  1.0000  0.041660  0.571430  0.250000  Uiso  0.012100
    B1  B  1.0000  0.166660  0.571430  0.250000  Uiso  0.012100
    B1  B  1.0000  0.291660  0.571430  0.250000  Uiso  0.012100
    B1  B  1.0000  0.416660  0.571430  0.250000  Uiso  0.012100
    B1  B  1.0000  0.541660  0.571430  0.250000  Uiso  0.012100
    B1  B  1.0000  0.666660  0.571430  0.250000  Uiso  0.012100
    B1  B  1.0000  0.791660  0.571430  0.250000  Uiso  0.012100
    B1  B  1.0000  0.916660  0.571430  0.250000  Uiso  0.012100
    B1  B  1.0000  0.041660  0.642860  0.250000  Uiso  0.012100
    B1  B  1.0000  0.166660  0.642860  0.250000  Uiso  0.012100
    B1  B  1.0000  0.291660  0.642860  0.250000  Uiso  0.012100
    B1  B  1.0000  0.416660  0.642860  0.250000  Uiso  0.012100
    B1  B  1.0000  0.541660  0.642860  0.250000  Uiso  0.012100
    B1  B  1.0000  0.666660  0.642860  0.250000  Uiso  0.012100
    B1  B  1.0000  0.791660  0.642860  0.250000  Uiso  0.012100
    B1  B  1.0000  0.916660  0.642860  0.250000  Uiso  0.012100
    B1  B  1.0000  0.041660  0.714290  0.250000  Uiso  0.012100
    B1  B  1.0000  0.166660  0.714290  0.250000  Uiso  0.012100
    B1  B  1.0000  0.291660  0.714290  0.250000  Uiso  0.012100
    B1  B  1.0000  0.416660  0.714290  0.250000  Uiso  0.012100
    B1  B  1.0000  0.541660  0.714290  0.250000  Uiso  0.012100
    B1  B  1.0000  0.666660  0.714290  0.250000  Uiso  0.012100
    B1  B  1.0000  0.791660  0.714290  0.250000  Uiso  0.012100
    B1  B  1.0000  0.916660  0.714290  0.250000  Uiso  0.012100
    B1  B  1.0000  0.041660  0.785710  0.250000  Uiso  0.012100
    B1  B  1.0000  0.166660  0.785710  0.250000  Uiso  0.012100
    B1  B  1.0000  0.291660  0.785710  0.250000  Uiso  0.012100
    B1  B  1.0000  0.416660  0.785710  0.250000  Uiso  0.012100
    B1  B  1.0000  0.541660  0.785710  0.250000  Uiso  0.012100
    B1  B  1.0000  0.666660  0.785710  0.250000  Uiso  0.012100
    B1  B  1.0000  0.791660  0.785710  0.250000  Uiso  0.012100
    B1  B  1.0000  0.916660  0.785710  0.250000  Uiso  0.012100
    B1  B  1.0000  0.041660  0.857140  0.250000  Uiso  0.012100
    B1  B  1.0000  0.166660  0.857140  0.250000  Uiso  0.012100
    B1  B  1.0000  0.291660  0.857140  0.250000  Uiso  0.012100
    B1  B  1.0000  0.416660  0.857140  0.250000  Uiso  0.012100
    B1  B  1.0000  0.541660  0.857140  0.250000  Uiso  0.012100
    B1  B  1.0000  0.666660  0.857140  0.250000  Uiso  0.012100
    B1  B  1.0000  0.791660  0.857140  0.250000  Uiso  0.012100
    B1  B  1.0000  0.916660  0.857140  0.250000  Uiso  0.012100
    B1  B  1.0000  0.041660  0.928570  0.250000  Uiso  0.012100
    B1  B  1.0000  0.166660  0.928570  0.250000  Uiso  0.012100
    B1  B  1.0000  0.291660  0.928570  0.250000  Uiso  0.012100
    B1  B  1.0000  0.416660  0.928570  0.250000  Uiso  0.012100
    B1  B  1.0000  0.541660  0.928570  0.250000  Uiso  0.012100
    B1  B  1.0000  0.666660  0.928570  0.250000  Uiso  0.012100
    B1  B  1.0000  0.791660  0.928570  0.250000  Uiso  0.012100
    B1  B  1.0000  0.916660  0.928570  0.250000  Uiso  0.012100
    B1  B  1.0000  0.104160  0.035710  0.250000  Uiso  0.012100
    B1  B  1.0000  0.229160  0.035710  0.250000  Uiso  0.012100
    B1  B  1.0000  0.354160  0.035710  0.250000  Uiso  0.012100
    B1  B  1.0000  0.479160  0.035710  0.250000  Uiso  0.012100
    B1  B  1.0000  0.604160  0.035710  0.250000  Uiso  0.012100
    B1  B  1.0000  0.729160  0.035710  0.250000  Uiso  0.012100
    B1  B  1.0000  0.854160  0.035710  0.250000  Uiso  0.012100
    B1  B  1.0000  0.979160  0.035710  0.250000  Uiso  0.012100
    B1  B  1.0000  0.104160  0.107140  0.250000  Uiso  0.012100
    B1  B  1.0000  0.229160  0.107140  0.250000  Uiso  0.012100
    B1  B  1.0000  0.354160  0.107140  0.250000  Uiso  0.012100
    B1  B  1.0000  0.479160  0.107140  0.250000  Uiso  0.012100
    B1  B  1.0000  0.604160  0.107140  0.250000  Uiso  0.012100
    B1  B  1.0000  0.729160  0.107140  0.250000  Uiso  0.012100
    B1  B  1.0000  0.854160  0.107140  0.250000  Uiso  0.012100
    B1  B  1.0000  0.979160  0.107140  0.250000  Uiso  0.012100
    B1  B  1.0000  0.104160  0.178570  0.250000  Uiso  0.012100
    B1  B  1.0000  0.229160  0.178570  0.250000  Uiso  0.012100
    B1  B  1.0000  0.354160  0.178570  0.250000  Uiso  0.012100
    B1  B  1.0000  0.479160  0.178570  0.250000  Uiso  0.012100
    B1  B  1.0000  0.604160  0.178570  0.250000  Uiso  0.012100
    B1  B  1.0000  0.729160  0.178570  0.250000  Uiso  0.012100
    B1  B  1.0000  0.854160  0.178570  0.250000  Uiso  0.012100
    B1  B  1.0000  0.979160  0.178570  0.250000  Uiso  0.012100
    B1  B  1.0000  0.104160  0.250000  0.250000  Uiso  0.012100
    B1  B  1.0000  0.229160  0.250000  0.250000  Uiso  0.012100
    B1  B  1.0000  0.354160  0.250000  0.250000  Uiso  0.012100
    B1  B  1.0000  0.479160  0.250000  0.250000  Uiso  0.012100
    B1  B  1.0000  0.604160  0.250000  0.250000  Uiso  0.012100
    B1  B  1.0000  0.729160  0.250000  0.250000  Uiso  0.012100
    B1  B  1.0000  0.854160  0.250000  0.250000  Uiso  0.012100
    B1  B  1.0000  0.979160  0.250000  0.250000  Uiso  0.012100
    B1  B  1.0000  0.104160  0.321430  0.250000  Uiso  0.012100
    B1  B  1.0000  0.229160  0.321430  0.250000  Uiso  0.012100
    B1  B  1.0000  0.354160  0.321430  0.250000  Uiso  0.012100
    B1  B  1.0000  0.479160  0.321430  0.250000  Uiso  0.012100
    B1  B  1.0000  0.604160  0.321430  0.250000  Uiso  0.012100
    B1  B  1.0000  0.729160  0.321430  0.250000  Uiso  0.012100
    B1  B  1.0000  0.854160  0.321430  0.250000  Uiso  0.012100
    B1  B  1.0000  0.979160  0.321430  0.250000  Uiso  0.012100
    B1  B  1.0000  0.104160  0.392860  0.250000  Uiso  0.012100
    B1  B  1.0000  0.229160  0.392860  0.250000  Uiso  0.012100
    B1  B  1.0000  0.354160  0.392860  0.250000  Uiso  0.012100
    B1  B  1.0000  0.479160  0.392860  0.250000  Uiso  0.012100
    B1  B  1.0000  0.604160  0.392860  0.250000  Uiso  0.012100
    B1  B  1.0000  0.729160  0.392860  0.250000  Uiso  0.012100
    B1  B  1.0000  0.854160  0.392860  0.250000  Uiso  0.012100
    B1  B  1.0000  0.979160  0.392860  0.250000  Uiso  0.012100
    B1  B  1.0000  0.104160  0.464290  0.250000  Uiso  0.012100
    B1  B  1.0000  0.229160  0.464290  0.250000  Uiso  0.012100
    B1  B  1.0000  0.354160  0.464290  0.250000  Uiso  0.012100
    B1  B  1.0000  0.479160  0.464290  0.250000  Uiso  0.012100
    B1  B  1.0000  0.604160  0.464290  0.250000  Uiso  0.012100
    B1  B  1.0000  0.729160  0.464290  0.250000  Uiso  0.012100
    B1  B  1.0000  0.854160  0.464290  0.250000  Uiso  0.012100
    B1  B  1.0000  0.979160  0.464290  0.250000  Uiso  0.012100
    B1  B  1.0000  0.104160  0.535710  0.250000  Uiso  0.012100
    B1  B  1.0000  0.229160  0.535710  0.250000  Uiso  0.012100
    B1  B  1.0000  0.354160  0.535710  0.250000  Uiso  0.012100
    B1  B  1.0000  0.479160  0.535710  0.250000  Uiso  0.012100
    B1  B  1.0000  0.604160  0.535710  0.250000  Uiso  0.012100
    B1  B  1.0000  0.729160  0.535710  0.250000  Uiso  0.012100
    B1  B  1.0000  0.854160  0.535710  0.250000  Uiso  0.012100
    B1  B  1.0000  0.979160  0.535710  0.250000  Uiso  0.012100
    B1  B  1.0000  0.104160  0.607140  0.250000  Uiso  0.012100
    B1  B  1.0000  0.229160  0.607140  0.250000  Uiso  0.012100
    B1  B  1.0000  0.354160  0.607140  0.250000  Uiso  0.012100
    B1  B  1.0000  0.479160  0.607140  0.250000  Uiso  0.012100
    B1  B  1.0000  0.604160  0.607140  0.250000  Uiso  0.012100
    B1  B  1.0000  0.729160  0.607140  0.250000  Uiso  0.012100
    B1  B  1.0000  0.854160  0.607140  0.250000  Uiso  0.012100
    B1  B  1.0000  0.979160  0.607140  0.250000  Uiso  0.012100
    B1  B  1.0000  0.104160  0.678570  0.250000  Uiso  0.012100
    B1  B  1.0000  0.229160  0.678570  0.250000  Uiso  0.012100
    B1  B  1.0000  0.354160  0.678570  0.250000  Uiso  0.012100
    B1  B  1.0000  0.479160  0.678570  0.250000  Uiso  0.012100
    B1  B  1.0000  0.604160  0.678570  0.250000  Uiso  0.012100
    B1  B  1.0000  0.729160  0.678570  0.250000  Uiso  0.012100
    B1  B  1.0000  0.854160  0.678570  0.250000  Uiso  0.012100
    B1  B  1.0000  0.979160  0.678570  0.250000  Uiso  0.012100
    B1  B  1.0000  0.104160  0.750000  0.250000  Uiso  0.012100
    B1  B  1.0000  0.229160  0.750000  0.250000  Uiso  0.012100
    B1  B  1.0000  0.354160  0.750000  0.250000  Uiso  0.012100
    B1  B  1.0000  0.479160  0.750000  0.250000  Uiso  0.012100
    B1  B  1.0000  0.604160  0.750000  0.250000  Uiso  0.012100
    B1  B  1.0000  0.729160  0.750000  0.250000  Uiso  0.012100
    B1  B  1.0000  0.854160  0.750000  0.250000  Uiso  0.012100
    B1  B  1.0000  0.979160  0.750000  0.250000  Uiso  0.012100
    B1  B  1.0000  0.104160  0.821430  0.250000  Uiso  0.012100
    B1  B  1.0000  0.229160  0.821430  0.250000  Uiso  0.012100
    B1  B  1.0000  0.354160  0.821430  0.250000  Uiso  0.012100
    B1  B  1.0000  0.479160  0.821430  0.250000  Uiso  0.012100
    B1  B  1.0000  0.604160  0.821430  0.250000  Uiso  0.012100
    B1  B  1.0000  0.729160  0.821430  0.250000  Uiso  0.012100
    B1  B  1.0000  0.854160  0.821430  0.250000  Uiso  0.012100
    B1  B  1.0000  0.979160  0.821430  0.250000  Uiso  0.012100
    B1  B  1.0000  0.104160  0.892860  0.250000  Uiso  0.012100
    B1  B  1.0000  0.229160  0.892860  0.250000  Uiso  0.012100
    B1  B  1.0000  0.354160  0.892860  0.250000  Uiso  0.012100
    B1  B  1.0000  0.479160  0.892860  0.250000  Uiso  0.012100
    B1  B  1.0000  0.604160  0.892860  0.250000  Uiso  0.012100
    B1  B  1.0000  0.729160  0.892860  0.250000  Uiso  0.012100
    B1  B  1.0000  0.854160  0.892860  0.250000  Uiso  0.012100
    B1  B  1.0000  0.979160  0.892860  0.250000  Uiso  0.012100
    B1  B  1.0000  0.104160  0.964290  0.250000  Uiso  0.012100
    B1  B  1.0000  0.229160  0.964290  0.250000  Uiso  0.012100
    B1  B  1.0000  0.354160  0.964290  0.250000  Uiso  0.012100
    B1  B  1.0000  0.479160  0.964290  0.250000  Uiso  0.012100
    B1  B  1.0000  0.604160  0.964290  0.250000  Uiso  0.012100
    B1  B  1.0000  0.729160  0.964290  0.250000  Uiso  0.012100
    B1  B  1.0000  0.854160  0.964290  0.250000  Uiso  0.012100
    B1  B  1.0000  0.979160  0.964290  0.250000  Uiso  0.012100
    N1  N  1.0000  0.000000  0.000000  0.250000  Uiso  0.009200
    N1  N  1.0000  0.125000  0.000000  0.250000  Uiso  0.009200
    N1  N  1.0000  0.250000  0.000000  0.250000  Uiso  0.009200
    N1  N  1.0000  0.375000  0.000000  0.250000  Uiso  0.009200
    N1  N  1.0000  0.500000  0.000000  0.250000  Uiso  0.009200
    N1  N  1.0000  0.625000  0.000000  0.250000  Uiso  0.009200
    N1  N  1.0000  0.750000  0.000000  0.250000  Uiso  0.009200
    N1  N  1.0000  0.875000  0.000000  0.250000  Uiso  0.009200
    N1  N  1.0000  0.000000  0.071430  0.250000  Uiso  0.009200
    N1  N  1.0000  0.125000  0.071430  0.250000  Uiso  0.009200
    N1  N  1.0000  0.250000  0.071430  0.250000  Uiso  0.009200
    N1  N  1.0000  0.375000  0.071430  0.250000  Uiso  0.009200
    N1  N  1.0000  0.500000  0.071430  0.250000  Uiso  0.009200
    N1  N  1.0000  0.625000  0.071430  0.250000  Uiso  0.009200
    N1  N  1.0000  0.750000  0.071430  0.250000  Uiso  0.009200
    N1  N  1.0000  0.875000  0.071430  0.250000  Uiso  0.009200
    N1  N  1.0000  0.000000  0.142860  0.250000  Uiso  0.009200
    N1  N  1.0000  0.125000  0.142860  0.250000  Uiso  0.009200
    N1  N  1.0000  0.250000  0.142860  0.250000  Uiso  0.009200
    N1  N  1.0000  0.375000  0.142860  0.250000  Uiso  0.009200
    N1  N  1.0000  0.500000  0.142860  0.250000  Uiso  0.009200
    N1  N  1.0000  0.625000  0.142860  0.250000  Uiso  0.009200
    N1  N  1.0000  0.750000  0.142860  0.250000  Uiso  0.009200
    N1  N  1.0000  0.875000  0.142860  0.250000  Uiso  0.009200
    N1  N  1.0000  0.000000  0.214290  0.250000  Uiso  0.009200
    N1  N  1.0000  0.125000  0.214290  0.250000  Uiso  0.009200
    N1  N  1.0000  0.250000  0.214290  0.250000  Uiso  0.009200
    N1  N  1.0000  0.375000  0.214290  0.250000  Uiso  0.009200
    N1  N  1.0000  0.500000  0.214290  0.250000  Uiso  0.009200
    N1  N  1.0000  0.625000  0.214290  0.250000  Uiso  0.009200
    N1  N  1.0000  0.750000  0.214290  0.250000  Uiso  0.009200
    N1  N  1.0000  0.875000  0.214290  0.250000  Uiso  0.009200
    N1  N  1.0000  0.000000  0.285710  0.250000  Uiso  0.009200
    N1  N  1.0000  0.125000  0.285710  0.250000  Uiso  0.009200
    N1  N  1.0000  0.250000  0.285710  0.250000  Uiso  0.009200
    N1  N  1.0000  0.375000  0.285710  0.250000  Uiso  0.009200
    N1  N  1.0000  0.500000  0.285710  0.250000  Uiso  0.009200
    N1  N  1.0000  0.625000  0.285710  0.250000  Uiso  0.009200
    N1  N  1.0000  0.750000  0.285710  0.250000  Uiso  0.009200
    N1  N  1.0000  0.875000  0.285710  0.250000  Uiso  0.009200
    N1  N  1.0000  0.000000  0.357140  0.250000  Uiso  0.009200
    N1  N  1.0000  0.125000  0.357140  0.250000  Uiso  0.009200
    N1  N  1.0000  0.250000  0.357140  0.250000  Uiso  0.009200
    N1  N  1.0000  0.375000  0.357140  0.250000  Uiso  0.009200
    N1  N  1.0000  0.500000  0.357140  0.250000  Uiso  0.009200
    N1  N  1.0000  0.625000  0.357140  0.250000  Uiso  0.009200
    N1  N  1.0000  0.750000  0.357140  0.250000  Uiso  0.009200
    N1  N  1.0000  0.875000  0.357140  0.250000  Uiso  0.009200
    N1  N  1.0000  0.000000  0.428570  0.250000  Uiso  0.009200
    N1  N  1.0000  0.125000  0.428570  0.250000  Uiso  0.009200
    N1  N  1.0000  0.250000  0.428570  0.250000  Uiso  0.009200
    N1  N  1.0000  0.375000  0.428570  0.250000  Uiso  0.009200
    N1  N  1.0000  0.500000  0.428570  0.250000  Uiso  0.009200
    N1  N  1.0000  0.625000  0.428570  0.250000  Uiso  0.009200
    N1  N  1.0000  0.750000  0.428570  0.250000  Uiso  0.009200
    N1  N  1.0000  0.875000  0.428570  0.250000  Uiso  0.009200
    N1  N  1.0000  0.000000  0.500000  0.250000  Uiso  0.009200
    N1  N  1.0000  0.125000  0.500000  0.250000  Uiso  0.009200
    N1  N  1.0000  0.250000  0.500000  0.250000  Uiso  0.009200
    N1  N  1.0000  0.375000  0.500000  0.250000  Uiso  0.009200
    N1  N  1.0000  0.500000  0.500000  0.250000  Uiso  0.009200
    N1  N  1.0000  0.625000  0.500000  0.250000  Uiso  0.009200
    N1  N  1.0000  0.750000  0.500000  0.250000  Uiso  0.009200
    N1  N  1.0000  0.875000  0.500000  0.250000  Uiso  0.009200
    N1  N  1.0000  0.000000  0.571430  0.250000  Uiso  0.009200
    N1  N  1.0000  0.125000  0.571430  0.250000  Uiso  0.009200
    N1  N  1.0000  0.250000  0.571430  0.250000  Uiso  0.009200
    N1  N  1.0000  0.375000  0.571430  0.250000  Uiso  0.009200
    N1  N  1.0000  0.500000  0.571430  0.250000  Uiso  0.009200
    N1  N  1.0000  0.625000  0.571430  0.250000  Uiso  0.009200
    N1  N  1.0000  0.750000  0.571430  0.250000  Uiso  0.009200
    N1  N  1.0000  0.875000  0.571430  0.250000  Uiso  0.009200
    N1  N  1.0000  0.000000  0.642860  0.250000  Uiso  0.009200
    N1  N  1.0000  0.125000  0.642860  0.250000  Uiso  0.009200
    N1  N  1.0000  0.250000  0.642860  0.250000  Uiso  0.009200
    N1  N  1.0000  0.375000  0.642860  0.250000  Uiso  0.009200
    N1  N  1.0000  0.500000  0.642860  0.250000  Uiso  0.009200
    N1  N  1.0000  0.625000  0.642860  0.250000  Uiso  0.009200
    N1  N  1.0000  0.750000  0.642860  0.250000  Uiso  0.009200
    N1  N  1.0000  0.875000  0.642860  0.250000  Uiso  0.009200
    N1  N  1.0000  0.000000  0.714290  0.250000  Uiso  0.009200
    N1  N  1.0000  0.125000  0.714290  0.250000  Uiso  0.009200
    N1  N  1.0000  0.250000  0.714290  0.250000  Uiso  0.009200
    N1  N  1.0000  0.375000  0.714290  0.250000  Uiso  0.009200
    N1  N  1.0000  0.500000  0.714290  0.250000  Uiso  0.009200
    N1  N  1.0000  0.625000  0.714290  0.250000  Uiso  0.009200
    N1  N  1.0000  0.750000  0.714290  0.250000  Uiso  0.009200
    N1  N  1.0000  0.875000  0.714290  0.250000  Uiso  0.009200
    N1  N  1.0000  0.000000  0.785710  0.250000  Uiso  0.009200
    N1  N  1.0000  0.125000  0.785710  0.250000  Uiso  0.009200
    N1  N  1.0000  0.250000  0.785710  0.250000  Uiso  0.009200
    N1  N  1.0000  0.375000  0.785710  0.250000  Uiso  0.009200
    N1  N  1.0000  0.500000  0.785710  0.250000  Uiso  0.009200
    N1  N  1.0000  0.625000  0.785710  0.250000  Uiso  0.009200
    N1  N  1.0000  0.750000  0.785710  0.250000  Uiso  0.009200
    N1  N  1.0000  0.875000  0.785710  0.250000  Uiso  0.009200
    N1  N  1.0000  0.000000  0.857140  0.250000  Uiso  0.009200
    N1  N  1.0000  0.125000  0.857140  0.250000  Uiso  0.009200
    N1  N  1.0000  0.250000  0.857140  0.250000  Uiso  0.009200
    N1  N  1.0000  0.375000  0.857140  0.250000  Uiso  0.009200
    N1  N  1.0000  0.500000  0.857140  0.250000  Uiso  0.009200
    N1  N  1.0000  0.625000  0.857140  0.250000  Uiso  0.009200
    N1  N  1.0000  0.750000  0.857140  0.250000  Uiso  0.009200
    N1  N  1.0000  0.875000  0.857140  0.250000  Uiso  0.009200
    N1  N  1.0000  0.000000  0.928570  0.250000  Uiso  0.009200
    N1  N  1.0000  0.125000  0.928570  0.250000  Uiso  0.009200
    N1  N  1.0000  0.250000  0.928570  0.250000  Uiso  0.009200
    N1  N  1.0000  0.375000  0.928570  0.250000  Uiso  0.009200
    N1  N  1.0000  0.500000  0.928570  0.250000  Uiso  0.009200
    N1  N  1.0000  0.625000  0.928570  0.250000  Uiso  0.009200
    N1  N  1.0000  0.750000  0.928570  0.250000  Uiso  0.009200
    N1  N  1.0000  0.875000  0.928570  0.250000  Uiso  0.009200
    N1  N  1.0000  0.062500  0.035710  0.250000  Uiso  0.009200
    N1  N  1.0000  0.187500  0.035710  0.250000  Uiso  0.009200
    N1  N  1.0000  0.312500  0.035710  0.250000  Uiso  0.009200
    N1  N  1.0000  0.437500  0.035710  0.250000  Uiso  0.009200
    N1  N  1.0000  0.562500  0.035710  0.250000  Uiso  0.009200
    N1  N  1.0000  0.687500  0.035710  0.250000  Uiso  0.009200
    N1  N  1.0000  0.812500  0.035710  0.250000  Uiso  0.009200
    N1  N  1.0000  0.937500  0.035710  0.250000  Uiso  0.009200
    N1  N  1.0000  0.062500  0.107140  0.250000  Uiso  0.009200
    N1  N  1.0000  0.187500  0.107140  0.250000  Uiso  0.009200
    N1  N  1.0000  0.312500  0.107140  0.250000  Uiso  0.009200
    N1  N  1.0000  0.437500  0.107140  0.250000  Uiso  0.009200
    N1  N  1.0000  0.562500  0.107140  0.250000  Uiso  0.009200
    N1  N  1.0000  0.687500  0.107140  0.250000  Uiso  0.009200
    N1  N  1.0000  0.812500  0.107140  0.250000  Uiso  0.009200
    N1  N  1.0000  0.937500  0.107140  0.250000  Uiso  0.009200
    N1  N  1.0000  0.062500  0.178570  0.250000  Uiso  0.009200
    N1  N  1.0000  0.187500  0.178570  0.250000  Uiso  0.009200
    N1  N  1.0000  0.312500  0.178570  0.250000  Uiso  0.009200
    N1  N  1.0000  0.437500  0.178570  0.250000  Uiso  0.009200
    N1  N  1.0000  0.562500  0.178570  0.250000  Uiso  0.009200
    N1  N  1.0000  0.687500  0.178570  0.250000  Uiso  0.009200
    N1  N  1.0000  0.812500  0.178570  0.250000  Uiso  0.009200
    N1  N  1.0000  0.937500  0.178570  0.250000  Uiso  0.009200
    N1  N  1.0000  0.062500  0.250000  0.250000  Uiso  0.009200
    N1  N  1.0000  0.187500  0.250000  0.250000  Uiso  0.009200
    N1  N  1.0000  0.312500  0.250000  0.250000  Uiso  0.009200
    N1  N  1.0000  0.437500  0.250000  0.250000  Uiso  0.009200
    N1  N  1.0000  0.562500  0.250000  0.250000  Uiso  0.009200
    N1  N  1.0000  0.687500  0.250000  0.250000  Uiso  0.009200
    N1  N  1.0000  0.812500  0.250000  0.250000  Uiso  0.009200
    N1  N  1.0000  0.937500  0.250000  0.250000  Uiso  0.009200
    N1  N  1.0000  0.062500  0.321430  0.250000  Uiso  0.009200
    N1  N  1.0000  0.187500  0.321430  0.250000  Uiso  0.009200
    N1  N  1.0000  0.312500  0.321430  0.250000  Uiso  0.009200
    N1  N  1.0000  0.437500  0.321430  0.250000  Uiso  0.009200
    N1  N  1.0000  0.562500  0.321430  0.250000  Uiso  0.009200
    N1  N  1.0000  0.687500  0.321430  0.250000  Uiso  0.009200
    N1  N  1.0000  0.812500  0.321430  0.250000  Uiso  0.009200
    N1  N  1.0000  0.937500  0.321430  0.250000  Uiso  0.009200
    N1  N  1.0000  0.062500  0.392860  0.250000  Uiso  0.009200
    N1  N  1.0000  0.187500  0.392860  0.250000  Uiso  0.009200
    N1  N  1.0000  0.312500  0.392860  0.250000  Uiso  0.009200
    N1  N  1.0000  0.437500  0.392860  0.250000  Uiso  0.009200
    N1  N  1.0000  0.562500  0.392860  0.250000  Uiso  0.009200
    N1  N  1.0000  0.687500  0.392860  0.250000  Uiso  0.009200
    N1  N  1.0000  0.812500  0.392860  0.250000  Uiso  0.009200
    N1  N  1.0000  0.937500  0.392860  0.250000  Uiso  0.009200
    N1  N  1.0000  0.062500  0.464290  0.250000  Uiso  0.009200
    N1  N  1.0000  0.187500  0.464290  0.250000  Uiso  0.009200
    N1  N  1.0000  0.312500  0.464290  0.250000  Uiso  0.009200
    N1  N  1.0000  0.437500  0.464290  0.250000  Uiso  0.009200
    N1  N  1.0000  0.562500  0.464290  0.250000  Uiso  0.009200
    N1  N  1.0000  0.687500  0.464290  0.250000  Uiso  0.009200
    N1  N  1.0000  0.812500  0.464290  0.250000  Uiso  0.009200
    N1  N  1.0000  0.937500  0.464290  0.250000  Uiso  0.009200
    N1  N  1.0000  0.062500  0.535710  0.250000  Uiso  0.009200
    N1  N  1.0000  0.187500  0.535710  0.250000  Uiso  0.009200
    N1  N  1.0000  0.312500  0.535710  0.250000  Uiso  0.009200
    N1  N  1.0000  0.437500  0.535710  0.250000  Uiso  0.009200
    N1  N  1.0000  0.562500  0.535710  0.250000  Uiso  0.009200
    N1  N  1.0000  0.687500  0.535710  0.250000  Uiso  0.009200
    N1  N  1.0000  0.812500  0.535710  0.250000  Uiso  0.009200
    N1  N  1.0000  0.937500  0.535710  0.250000  Uiso  0.009200
    N1  N  1.0000  0.062500  0.607140  0.250000  Uiso  0.009200
    N1  N  1.0000  0.187500  0.607140  0.250000  Uiso  0.009200
    N1  N  1.0000  0.312500  0.607140  0.250000  Uiso  0.009200
    N1  N  1.0000  0.437500  0.607140  0.250000  Uiso  0.009200
    N1  N  1.0000  0.562500  0.607140  0.250000  Uiso  0.009200
    N1  N  1.0000  0.687500  0.607140  0.250000  Uiso  0.009200
    N1  N  1.0000  0.812500  0.607140  0.250000  Uiso  0.009200
    N1  N  1.0000  0.937500  0.607140  0.250000  Uiso  0.009200
    N1  N  1.0000  0.062500  0.678570  0.250000  Uiso  0.009200
    N1  N  1.0000  0.187500  0.678570  0.250000  Uiso  0.009200
    N1  N  1.0000  0.312500  0.678570  0.250000  Uiso  0.009200
    N1  N  1.0000  0.437500  0.678570  0.250000  Uiso  0.009200
    N1  N  1.0000  0.562500  0.678570  0.250000  Uiso  0.009200
    N1  N  1.0000  0.687500  0.678570  0.250000  Uiso  0.009200
    N1  N  1.0000  0.812500  0.678570  0.250000  Uiso  0.009200
    N1  N  1.0000  0.937500  0.678570  0.250000  Uiso  0.009200
    N1  N  1.0000  0.062500  0.750000  0.250000  Uiso  0.009200
    N1  N  1.0000  0.187500  0.750000  0.250000  Uiso  0.009200
    N1  N  1.0000  0.312500  0.750000  0.250000  Uiso  0.009200
    N1  N  1.0000  0.437500  0.750000  0.250000  Uiso  0.009200
    N1  N  1.0000  0.562500  0.750000  0.250000  Uiso  0.009200
    N1  N  1.0000  0.687500  0.750000  0.250000  Uiso  0.009200
    N1  N  1.0000  0.812500  0.750000  0.250000  Uiso  0.009200
    N1  N  1.0000  0.937500  0.750000  0.250000  Uiso  0.009200
    N1  N  1.0000  0.062500  0.821430  0.250000  Uiso  0.009200
    N1  N  1.0000  0.187500  0.821430  0.250000  Uiso  0.009200
    N1  N  1.0000  0.312500  0.821430  0.250000  Uiso  0.009200
    N1  N  1.0000  0.437500  0.821430  0.250000  Uiso  0.009200
    N1  N  1.0000  0.562500  0.821430  0.250000  Uiso  0.009200
    N1  N  1.0000  0.687500  0.821430  0.250000  Uiso  0.009200
    N1  N  1.0000  0.812500  0.821430  0.250000  Uiso  0.009200
    N1  N  1.0000  0.937500  0.821430  0.250000  Uiso  0.009200
    N1  N  1.0000  0.062500  0.892860  0.250000  Uiso  0.009200
    N1  N  1.0000  0.187500  0.892860  0.250000  Uiso  0.009200
    N1  N  1.0000  0.312500  0.892860  0.250000  Uiso  0.009200
    N1  N  1.0000  0.437500  0.892860  0.250000  Uiso  0.009200
    N1  N  1.0000  0.562500  0.892860  0.250000  Uiso  0.009200
    N1  N  1.0000  0.687500  0.892860  0.250000  Uiso  0.009200
    N1  N  1.0000  0.812500  0.892860  0.250000  Uiso  0.009200
    N1  N  1.0000  0.937500  0.892860  0.250000  Uiso  0.009200
    N1  N  1.0000  0.062500  0.964290  0.250000  Uiso  0.009200
    N1  N  1.0000  0.187500  0.964290  0.250000  Uiso  0.009200
    N1  N  1.0000  0.312500  0.964290  0.250000  Uiso  0.009200
    N1  N  1.0000  0.437500  0.964290  0.250000  Uiso  0.009200
    N1  N  1.0000  0.562500  0.964290  0.250000  Uiso  0.009200
    N1  N  1.0000  0.687500  0.964290  0.250000  Uiso  0.009200
    N1  N  1.0000  0.812500  0.964290  0.250000  Uiso  0.009200
    N1  N  1.0000  0.937500  0.964290  0.250000  Uiso  0.009200
    N1  N  1.0000  0.041660  0.000000  0.750000  Uiso  0.009200
    N1  N  1.0000  0.166660  0.000000  0.750000  Uiso  0.009200
    N1  N  1.0000  0.291660  0.000000  0.750000  Uiso  0.009200
    N1  N  1.0000  0.416660  0.000000  0.750000  Uiso  0.009200
    N1  N  1.0000  0.541660  0.000000  0.750000  Uiso  0.009200
    N1  N  1.0000  0.666660  0.000000  0.750000  Uiso  0.009200
    N1  N  1.0000  0.791660  0.000000  0.750000  Uiso  0.009200
    N1  N  1.0000  0.916660  0.000000  0.750000  Uiso  0.009200
    N1  N  1.0000  0.041660  0.071430  0.750000  Uiso  0.009200
    N1  N  1.0000  0.166660  0.071430  0.750000  Uiso  0.009200
    N1  N  1.0000  0.291660  0.071430  0.750000  Uiso  0.009200
    N1  N  1.0000  0.416660  0.071430  0.750000  Uiso  0.009200
    N1  N  1.0000  0.541660  0.071430  0.750000  Uiso  0.009200
    N1  N  1.0000  0.666660  0.071430  0.750000  Uiso  0.009200
    N1  N  1.0000  0.791660  0.071430  0.750000  Uiso  0.009200
    N1  N  1.0000  0.916660  0.071430  0.750000  Uiso  0.009200
    N1  N  1.0000  0.041660  0.142860  0.750000  Uiso  0.009200
    N1  N  1.0000  0.166660  0.142860  0.750000  Uiso  0.009200
    N1  N  1.0000  0.291660  0.142860  0.750000  Uiso  0.009200
    N1  N  1.0000  0.416660  0.142860  0.750000  Uiso  0.009200
    N1  N  1.0000  0.541660  0.142860  0.750000  Uiso  0.009200
    N1  N  1.0000  0.666660  0.142860  0.750000  Uiso  0.009200
    N1  N  1.0000  0.791660  0.142860  0.750000  Uiso  0.009200
    N1  N  1.0000  0.916660  0.142860  0.750000  Uiso  0.009200
    N1  N  1.0000  0.041660  0.214290  0.750000  Uiso  0.009200
    N1  N  1.0000  0.166660  0.214290  0.750000  Uiso  0.009200
    N1  N  1.0000  0.291660  0.214290  0.750000  Uiso  0.009200
    N1  N  1.0000  0.416660  0.214290  0.750000  Uiso  0.009200
    N1  N  1.0000  0.541660  0.214290  0.750000  Uiso  0.009200
    N1  N  1.0000  0.666660  0.214290  0.750000  Uiso  0.009200
    N1  N  1.0000  0.791660  0.214290  0.750000  Uiso  0.009200
    N1  N  1.0000  0.916660  0.214290  0.750000  Uiso  0.009200
    N1  N  1.0000  0.041660  0.285710  0.750000  Uiso  0.009200
    N1  N  1.0000  0.166660  0.285710  0.750000  Uiso  0.009200
    N1  N  1.0000  0.291660  0.285710  0.750000  Uiso  0.009200
    N1  N  1.0000  0.416660  0.285710  0.750000  Uiso  0.009200
    N1  N  1.0000  0.541660  0.285710  0.750000  Uiso  0.009200
    N1  N  1.0000  0.666660  0.285710  0.750000  Uiso  0.009200
    N1  N  1.0000  0.791660  0.285710  0.750000  Uiso  0.009200
    N1  N  1.0000  0.916660  0.285710  0.750000  Uiso  0.009200
    N1  N  1.0000  0.041660  0.357140  0.750000  Uiso  0.009200
    N1  N  1.0000  0.166660  0.357140  0.750000  Uiso  0.009200
    N1  N  1.0000  0.291660  0.357140  0.750000  Uiso  0.009200
    N1  N  1.0000  0.416660  0.357140  0.750000  Uiso  0.009200
    N1  N  1.0000  0.541660  0.357140  0.750000  Uiso  0.009200
    N1  N  1.0000  0.666660  0.357140  0.750000  Uiso  0.009200
    N1  N  1.0000  0.791660  0.357140  0.750000  Uiso  0.009200
    N1  N  1.0000  0.916660  0.357140  0.750000  Uiso  0.009200
    N1  N  1.0000  0.041660  0.428570  0.750000  Uiso  0.009200
    N1  N  1.0000  0.166660  0.428570  0.750000  Uiso  0.009200
    N1  N  1.0000  0.291660  0.428570  0.750000  Uiso  0.009200
    N1  N  1.0000  0.416660  0.428570  0.750000  Uiso  0.009200
    N1  N  1.0000  0.541660  0.428570  0.750000  Uiso  0.009200
    N1  N  1.0000  0.666660  0.428570  0.750000  Uiso  0.009200
    N1  N  1.0000  0.791660  0.428570  0.750000  Uiso  0.009200
    N1  N  1.0000  0.916660  0.428570  0.750000  Uiso  0.009200
    N1  N  1.0000  0.041660  0.500000  0.750000  Uiso  0.009200
    N1  N  1.0000  0.166660  0.500000  0.750000  Uiso  0.009200
    N1  N  1.0000  0.291660  0.500000  0.750000  Uiso  0.009200
    N1  N  1.0000  0.416660  0.500000  0.750000  Uiso  0.009200
    N1  N  1.0000  0.541660  0.500000  0.750000  Uiso  0.009200
    N1  N  1.0000  0.666660  0.500000  0.750000  Uiso  0.009200
    N1  N  1.0000  0.791660  0.500000  0.750000  Uiso  0.009200
    N1  N  1.0000  0.916660  0.500000  0.750000  Uiso  0.009200
    N1  N  1.0000  0.041660  0.571430  0.750000  Uiso  0.009200
    N1  N  1.0000  0.166660  0.571430  0.750000  Uiso  0.009200
    N1  N  1.0000  0.291660  0.571430  0.750000  Uiso  0.009200
    N1  N  1.0000  0.416660  0.571430  0.750000  Uiso  0.009200
    N1  N  1.0000  0.541660  0.571430  0.750000  Uiso  0.009200
    N1  N  1.0000  0.666660  0.571430  0.750000  Uiso  0.009200
    N1  N  1.0000  0.791660  0.571430  0.750000  Uiso  0.009200
    N1  N  1.0000  0.916660  0.571430  0.750000  Uiso  0.009200
    N1  N  1.0000  0.041660  0.642860  0.750000  Uiso  0.009200
    N1  N  1.0000  0.166660  0.642860  0.750000  Uiso  0.009200
    N1  N  1.0000  0.291660  0.642860  0.750000  Uiso  0.009200
    N1  N  1.0000  0.416660  0.642860  0.750000  Uiso  0.009200
    N1  N  1.0000  0.541660  0.642860  0.750000  Uiso  0.009200
    N1  N  1.0000  0.666660  0.642860  0.750000  Uiso  0.009200
    N1  N  1.0000  0.791660  0.642860  0.750000  Uiso  0.009200
    N1  N  1.0000  0.916660  0.642860  0.750000  Uiso  0.009200
    N1  N  1.0000  0.041660  0.714290  0.750000  Uiso  0.009200
    N1  N  1.0000  0.166660  0.714290  0.750000  Uiso  0.009200
    N1  N  1.0000  0.291660  0.714290  0.750000  Uiso  0.009200
    N1  N  1.0000  0.416660  0.714290  0.750000  Uiso  0.009200
    N1  N  1.0000  0.541660  0.714290  0.750000  Uiso  0.009200
    N1  N  1.0000  0.666660  0.714290  0.750000  Uiso  0.009200
    N1  N  1.0000  0.791660  0.714290  0.750000  Uiso  0.009200
    N1  N  1.0000  0.916660  0.714290  0.750000  Uiso  0.009200
    N1  N  1.0000  0.041660  0.785710  0.750000  Uiso  0.009200
    N1  N  1.0000  0.166660  0.785710  0.750000  Uiso  0.009200
    N1  N  1.0000  0.291660  0.785710  0.750000  Uiso  0.009200
    N1  N  1.0000  0.416660  0.785710  0.750000  Uiso  0.009200
    N1  N  1.0000  0.541660  0.785710  0.750000  Uiso  0.009200
    N1  N  1.0000  0.666660  0.785710  0.750000  Uiso  0.009200
    N1  N  1.0000  0.791660  0.785710  0.750000  Uiso  0.009200
    N1  N  1.0000  0.916660  0.785710  0.750000  Uiso  0.009200
    N1  N  1.0000  0.041660  0.857140  0.750000  Uiso  0.009200
    N1  N  1.0000  0.166660  0.857140  0.750000  Uiso  0.009200
    N1  N  1.0000  0.291660  0.857140  0.750000  Uiso  0.009200
    N1  N  1.0000  0.416660  0.857140  0.750000  Uiso  0.009200
    N1  N  1.0000  0.541660  0.857140  0.750000  Uiso  0.009200
    N1  N  1.0000  0.666660  0.857140  0.750000  Uiso  0.009200
    N1  N  1.0000  0.791660  0.857140  0.750000  Uiso  0.009200
    N1  N  1.0000  0.916660  0.857140  0.750000  Uiso  0.009200
    N1  N  1.0000  0.041660  0.928570  0.750000  Uiso  0.009200
    N1  N  1.0000  0.166660  0.928570  0.750000  Uiso  0.009200
    N1  N  1.0000  0.291660  0.928570  0.750000  Uiso  0.009200
    N1  N  1.0000  0.416660  0.928570  0.750000  Uiso  0.009200
    N1  N  1.0000  0.541660  0.928570  0.750000  Uiso  0.009200
    N1  N  1.0000  0.666660  0.928570  0.750000  Uiso  0.009200
    N1  N  1.0000  0.791660  0.928570  0.750000  Uiso  0.009200
    N1  N  1.0000  0.916660  0.928570  0.750000  Uiso  0.009200
    N1  N  1.0000  0.104160  0.035710  0.750000  Uiso  0.009200
    N1  N  1.0000  0.229160  0.035710  0.750000  Uiso  0.009200
    N1  N  1.0000  0.354160  0.035710  0.750000  Uiso  0.009200
    N1  N  1.0000  0.479160  0.035710  0.750000  Uiso  0.009200
    N1  N  1.0000  0.604160  0.035710  0.750000  Uiso  0.009200
    N1  N  1.0000  0.729160  0.035710  0.750000  Uiso  0.009200
    N1  N  1.0000  0.854160  0.035710  0.750000  Uiso  0.009200
    N1  N  1.0000  0.979160  0.035710  0.750000  Uiso  0.009200
    N1  N  1.0000  0.104160  0.107140  0.750000  Uiso  0.009200
    N1  N  1.0000  0.229160  0.107140  0.750000  Uiso  0.009200
    N1  N  1.0000  0.354160  0.107140  0.750000  Uiso  0.009200
    N1  N  1.0000  0.479160  0.107140  0.750000  Uiso  0.009200
    N1  N  1.0000  0.604160  0.107140  0.750000  Uiso  0.009200
    N1  N  1.0000  0.729160  0.107140  0.750000  Uiso  0.009200
    N1  N  1.0000  0.854160  0.107140  0.750000  Uiso  0.009200
    N1  N  1.0000  0.979160  0.107140  0.750000  Uiso  0.009200
    N1  N  1.0000  0.104160  0.178570  0.750000  Uiso  0.009200
    N1  N  1.0000  0.229160  0.178570  0.750000  Uiso  0.009200
    N1  N  1.0000  0.354160  0.178570  0.750000  Uiso  0.009200
    N1  N  1.0000  0.479160  0.178570  0.750000  Uiso  0.009200
    N1  N  1.0000  0.604160  0.178570  0.750000  Uiso  0.009200
    N1  N  1.0000  0.729160  0.178570  0.750000  Uiso  0.009200
    N1  N  1.0000  0.854160  0.178570  0.750000  Uiso  0.009200
    N1  N  1.0000  0.979160  0.178570  0.750000  Uiso  0.009200
    N1  N  1.0000  0.104160  0.250000  0.750000  Uiso  0.009200
    N1  N  1.0000  0.229160  0.250000  0.750000  Uiso  0.009200
    N1  N  1.0000  0.354160  0.250000  0.750000  Uiso  0.009200
    N1  N  1.0000  0.479160  0.250000  0.750000  Uiso  0.009200
    N1  N  1.0000  0.604160  0.250000  0.750000  Uiso  0.009200
    N1  N  1.0000  0.729160  0.250000  0.750000  Uiso  0.009200
    N1  N  1.0000  0.854160  0.250000  0.750000  Uiso  0.009200
    N1  N  1.0000  0.979160  0.250000  0.750000  Uiso  0.009200
    N1  N  1.0000  0.104160  0.321430  0.750000  Uiso  0.009200
    N1  N  1.0000  0.229160  0.321430  0.750000  Uiso  0.009200
    N1  N  1.0000  0.354160  0.321430  0.750000  Uiso  0.009200
    N1  N  1.0000  0.479160  0.321430  0.750000  Uiso  0.009200
    N1  N  1.0000  0.604160  0.321430  0.750000  Uiso  0.009200
    N1  N  1.0000  0.729160  0.321430  0.750000  Uiso  0.009200
    N1  N  1.0000  0.854160  0.321430  0.750000  Uiso  0.009200
    N1  N  1.0000  0.979160  0.321430  0.750000  Uiso  0.009200
    N1  N  1.0000  0.104160  0.392860  0.750000  Uiso  0.009200
    N1  N  1.0000  0.229160  0.392860  0.750000  Uiso  0.009200
    N1  N  1.0000  0.354160  0.392860  0.750000  Uiso  0.009200
    N1  N  1.0000  0.479160  0.392860  0.750000  Uiso  0.009200
    N1  N  1.0000  0.604160  0.392860  0.750000  Uiso  0.009200
    N1  N  1.0000  0.729160  0.392860  0.750000  Uiso  0.009200
    N1  N  1.0000  0.854160  0.392860  0.750000  Uiso  0.009200
    N1  N  1.0000  0.979160  0.392860  0.750000  Uiso  0.009200
    N1  N  1.0000  0.104160  0.464290  0.750000  Uiso  0.009200
    N1  N  1.0000  0.229160  0.464290  0.750000  Uiso  0.009200
    N1  N  1.0000  0.354160  0.464290  0.750000  Uiso  0.009200
    N1  N  1.0000  0.479160  0.464290  0.750000  Uiso  0.009200
    N1  N  1.0000  0.604160  0.464290  0.750000  Uiso  0.009200
    N1  N  1.0000  0.729160  0.464290  0.750000  Uiso  0.009200
    N1  N  1.0000  0.854160  0.464290  0.750000  Uiso  0.009200
    N1  N  1.0000  0.979160  0.464290  0.750000  Uiso  0.009200
    N1  N  1.0000  0.104160  0.535710  0.750000  Uiso  0.009200
    N1  N  1.0000  0.229160  0.535710  0.750000  Uiso  0.009200
    N1  N  1.0000  0.354160  0.535710  0.750000  Uiso  0.009200
    N1  N  1.0000  0.479160  0.535710  0.750000  Uiso  0.009200
    N1  N  1.0000  0.604160  0.535710  0.750000  Uiso  0.009200
    N1  N  1.0000  0.729160  0.535710  0.750000  Uiso  0.009200
    N1  N  1.0000  0.854160  0.535710  0.750000  Uiso  0.009200
    N1  N  1.0000  0.979160  0.535710  0.750000  Uiso  0.009200
    N1  N  1.0000  0.104160  0.607140  0.750000  Uiso  0.009200
    N1  N  1.0000  0.229160  0.607140  0.750000  Uiso  0.009200
    N1  N  1.0000  0.354160  0.607140  0.750000  Uiso  0.009200
    N1  N  1.0000  0.479160  0.607140  0.750000  Uiso  0.009200
    N1  N  1.0000  0.604160  0.607140  0.750000  Uiso  0.009200
    N1  N  1.0000  0.729160  0.607140  0.750000  Uiso  0.009200
    N1  N  1.0000  0.854160  0.607140  0.750000  Uiso  0.009200
    N1  N  1.0000  0.979160  0.607140  0.750000  Uiso  0.009200
    N1  N  1.0000  0.104160  0.678570  0.750000  Uiso  0.009200
    N1  N  1.0000  0.229160  0.678570  0.750000  Uiso  0.009200
    N1  N  1.0000  0.354160  0.678570  0.750000  Uiso  0.009200
    N1  N  1.0000  0.479160  0.678570  0.750000  Uiso  0.009200
    N1  N  1.0000  0.604160  0.678570  0.750000  Uiso  0.009200
    N1  N  1.0000  0.729160  0.678570  0.750000  Uiso  0.009200
    N1  N  1.0000  0.854160  0.678570  0.750000  Uiso  0.009200
    N1  N  1.0000  0.979160  0.678570  0.750000  Uiso  0.009200
    N1  N  1.0000  0.104160  0.750000  0.750000  Uiso  0.009200
    N1  N  1.0000  0.229160  0.750000  0.750000  Uiso  0.009200
    N1  N  1.0000  0.354160  0.750000  0.750000  Uiso  0.009200
    N1  N  1.0000  0.479160  0.750000  0.750000  Uiso  0.009200
    N1  N  1.0000  0.604160  0.750000  0.750000  Uiso  0.009200
    N1  N  1.0000  0.729160  0.750000  0.750000  Uiso  0.009200
    N1  N  1.0000  0.854160  0.750000  0.750000  Uiso  0.009200
    N1  N  1.0000  0.979160  0.750000  0.750000  Uiso  0.009200
    N1  N  1.0000  0.104160  0.821430  0.750000  Uiso  0.009200
    N1  N  1.0000  0.229160  0.821430  0.750000  Uiso  0.009200
    N1  N  1.0000  0.354160  0.821430  0.750000  Uiso  0.009200
    N1  N  1.0000  0.479160  0.821430  0.750000  Uiso  0.009200
    N1  N  1.0000  0.604160  0.821430  0.750000  Uiso  0.009200
    N1  N  1.0000  0.729160  0.821430  0.750000  Uiso  0.009200
    N1  N  1.0000  0.854160  0.821430  0.750000  Uiso  0.009200
    N1  N  1.0000  0.979160  0.821430  0.750000  Uiso  0.009200
    N1  N  1.0000  0.104160  0.892860  0.750000  Uiso  0.009200
    N1  N  1.0000  0.229160  0.892860  0.750000  Uiso  0.009200
    N1  N  1.0000  0.354160  0.892860  0.750000  Uiso  0.009200
    N1  N  1.0000  0.479160  0.892860  0.750000  Uiso  0.009200
    N1  N  1.0000  0.604160  0.892860  0.750000  Uiso  0.009200
    N1  N  1.0000  0.729160  0.892860  0.750000  Uiso  0.009200
    N1  N  1.0000  0.854160  0.892860  0.750000  Uiso  0.009200
    N1  N  1.0000  0.979160  0.892860  0.750000  Uiso  0.009200
    N1  N  1.0000  0.104160  0.964290  0.750000  Uiso  0.009200
    N1  N  1.0000  0.229160  0.964290  0.750000  Uiso  0.009200
    N1  N  1.0000  0.354160  0.964290  0.750000  Uiso  0.009200
    N1  N  1.0000  0.479160  0.964290  0.750000  Uiso  0.009200
    N1  N  1.0000  0.604160  0.964290  0.750000  Uiso  0.009200
    N1  N  1.0000  0.729160  0.964290  0.750000  Uiso  0.009200
    N1  N  1.0000  0.854160  0.964290  0.750000  Uiso  0.009200
    N1  N  1.0000  0.979160  0.964290  0.750000  Uiso  0.009200

# End of data_CELSLC
